ngspice 2 -> op
Doing analysis at TEMP = 27.000000 and TNOM = 27.000000



No. of Data Rows : 1
ngspice 2 -> tran 0.5s 1s
Doing analysis at TEMP = 27.000000 and TNOM = 27.000000


Initial Transient Solution
--------------------------

Node                                   Voltage
----                                   -------
vout                                   3.83673
vin                                         12
v1#branch                          -0.00816327

